@<TRIPOS>MOLECULE
b12
  211   218     1     0     0
SMALL
No Charge or Current Charge


@<TRIPOS>ATOM
      1 Co1         91.6670    13.4750   189.6200 Co         1 b12       0.436406
      2 N1          90.8490    13.5030   187.9530 ne         1 b12      -0.361716
      3 N2          90.1760    12.3990   190.2440 nf         1 b12      -0.071862
      4 N3          92.4080    13.8630   191.3310 ne         1 b12      -0.312082
      5 N4          93.0170    14.5190   188.8480 nf         1 b12       0.672011
      6 C1          91.4210    14.5700   187.0340 c3         1 b12       0.208909
      7 C2          90.8270    15.9040   187.5120 c3         1 b12      -0.430198
      8 C3          90.8980    14.1560   185.5910 c3         1 b12       0.255279
      9 C4          90.7160    15.3630   184.6840 c3         1 b12      -0.487707
     10 C5          91.8770    13.1640   184.9050 c3         1 b12      -0.656335
     11 C6          91.3700    12.6350   183.5720 c          1 b12       1.023958
     12 O1          90.2540    12.8190   183.1140 o          1 b12      -0.630629
     13 N5          92.2890    11.8870   182.8400 n          1 b12      -1.174239
     14 C7          89.5650    13.3790   185.9550 c3         1 b12       0.486835
     15 C8          88.2740    14.1980   185.8020 c3         1 b12      -0.412739
     16 C9          87.6460    13.9920   184.4200 c3         1 b12      -0.484373
     17 C10         86.3940    14.8370   184.2970 c          1 b12       0.947392
     18 O2          85.3610    14.6020   184.9030 o          1 b12      -0.621646
     19 N6          86.4670    15.9460   183.4590 n          1 b12      -1.110026
     20 C11         89.7920    12.9300   187.4040 c2         1 b12       0.064789
     21 C12         88.9570    11.9820   188.1360 c2         1 b12       0.117325
     22 C13         87.9340    11.2870   187.2970 c3         1 b12      -0.462050
     23 C14         89.1390    11.7640   189.4740 c2         1 b12      -0.254121
     24 C15         88.2980    10.8310   190.3910 c3         1 b12       0.523243
     25 C16         86.7980    11.0380   190.2400 c3         1 b12      -0.388632
     26 C17         88.6970     9.3490   190.1690 c3         1 b12      -0.691144
     27 C18         88.3010     8.7220   188.8470 c          1 b12       1.026292
     28 O3          89.0420     8.6650   187.8810 o          1 b12      -0.631129
     29 N7          87.0280     8.1590   188.7740 n          1 b12      -1.137115
     30 C19         88.8030    11.2100   191.8380 c3         1 b12      -0.081205
     31 C20         87.8130    11.9230   192.7780 c3         1 b12      -0.204242
     32 C21         87.5220    13.3980   192.4560 c3         1 b12      -0.325579
     33 C22         87.8160    14.2950   193.6450 c2         1 b12       0.973194
     34 O4          88.8350    14.9590   193.7690 o          1 b12      -0.656974
     35 N8          86.8480    14.3370   194.6440 n          1 b12      -1.162968
     36 C23         90.0440    12.0580   191.5610 c2         1 b12       0.415737
     37 C24         90.9080    12.4070   192.5910 c2         1 b12      -0.822504
     38 C25         91.9670    13.3130   192.4930 c2         1 b12       0.440795
     39 C26         92.7570    13.7960   193.7360 c3         1 b12       0.430538
     40 C27         93.7520    12.6950   194.1290 c3         1 b12      -0.560783
     41 C28         91.8400    14.0990   194.9150 c3         1 b12      -0.534336
     42 C29         93.5290    15.0300   193.1450 c3         1 b12       0.188142
     43 C30         93.0550    16.4260   193.5920 c3         1 b12      -0.421997
     44 C31         91.5910    16.7950   193.3310 c3         1 b12       0.078530
     45 C32         91.4180    17.7320   192.1460 c          1 b12       0.884090
     46 O5          92.1910    17.7670   191.1900 o          1 b12      -0.681488
     47 N9          90.2800    18.5150   192.1390 n          1 b12      -1.235545
     48 C33         93.4190    14.8440   191.6300 c2         1 b12      -0.191937
     49 C34         94.1930    15.4910   190.7090 c2         1 b12       0.637117
     50 C35         95.3020    16.4020   191.1240 c3         1 b12      -0.585765
     51 C36         93.9620    15.3340   189.2830 c2         1 b12      -0.844179
     52 C37         94.7590    15.9990   188.1290 c3         1 b12       0.131526
     53 C38         96.1270    15.2950   188.0560 c3         1 b12      -0.466586
     54 C39         94.9880    17.5120   188.2730 c3         1 b12      -0.162640
     55 C40         93.7460    18.3390   188.6060 c3         1 b12      -0.355923
     56 C41         94.1720    19.6680   189.2120 c          1 b12       0.891206
     57 O6          95.1330    19.7700   189.9660 o          1 b12      -0.600473
     58 N10         93.4380    20.7740   188.8030 n          1 b12      -0.733854
     59 C42         93.8170    15.7130   186.8880 c2         1 b12       0.781771
     60 C43         94.5180    15.4910   185.5440 c3         1 b12      -0.376687
     61 C44         94.4500    16.7600   184.7060 c2         1 b12       0.910628
     62 O7          93.3920    17.2350   184.3250 o          1 b12      -0.569741
     63 N11         95.6540    17.3570   184.3580 n          1 b12      -1.094206
     64 C45         92.9460    14.5120   187.3440 c3         1 b12      -1.118809
     65 C46         93.5960    22.0910   189.4590 c3         1 b12      -0.138742
     66 C47         92.3170    22.4410   190.2590 c3         1 b12       0.588298
     67 C48         92.4040    23.8310   190.8750 c3         1 b12      -0.657454
     68 O8          91.2880    22.4510   189.2430 os         1 b12      -0.393117
     69 O9          89.7910    21.1170   190.9420 o          1 b12      -0.746195
     70 O10         89.3600    21.1530   188.2870 o          1 b12      -0.701974
     71 P1          89.8170    21.7190   189.5780 p5         1 b12       0.981308
     72 O11         88.9020    23.2010   189.7860 os         1 b12      -0.354812
     73 C49         88.8260    23.9630   188.5950 c3         1 b12       0.007065
     74 C50         87.3960    24.5920   188.6130 c3         1 b12       0.347788
     75 O12         86.5750    23.9880   189.5990 oh         1 b12      -0.755031
     76 C51         87.6620    26.0870   188.9820 c3         1 b12       0.231686
     77 O13         88.9910    26.3630   188.5980 os         1 b12      -0.478738
     78 C52         89.8140    25.1450   188.7490 c3         1 b12      -0.010930
     79 C53         90.9220    25.2040   187.6990 c3         1 b12       0.224155
     80 O14         91.9940    26.0070   188.2030 oh         1 b12      -0.726721
     81 N12         87.5690    26.2900   190.4700 na         1 b12       0.158199
     82 C54         87.0660    27.4240   191.1590 ca         1 b12      -0.076056
     83 C55         87.9270    25.3380   191.4050 c2         1 b12       0.147539
     84 N13         87.6650    25.8180   192.6730 na         1 b12      -0.420750
     85 C56         87.1190    27.1210   192.5530 ca         1 b12       0.211426
     86 C57         86.6880    28.0490   193.5170 ca         1 b12      -0.403639
     87 C58         86.2110    29.2740   193.0730 ca         1 b12       0.210646
     88 C59         85.7440    30.2810   194.0660 c3         1 b12      -0.408961
     89 C60         86.1650    29.5870   191.6640 ca         1 b12       0.160386
     90 C61         85.6550    30.9150   191.2220 c3         1 b12      -0.345498
     91 C62         86.5910    28.6700   190.7130 ca         1 b12      -0.325722
     92 N14         97.1400     9.9500   194.6580 n2         1 b12      -0.793056
     93 C63         96.7830     9.3750   193.4760 c2         1 b12       0.533306
     94 N15         96.5550    10.0050   192.2830 n2         1 b12      -0.754660
     95 C64         96.7200    11.3650   192.3330 c2         1 b12       0.523119
     96 N16         96.5920    12.3320   191.3160 na         1 b12      -0.332684
     97 C65         96.8890    13.5950   191.9540 c2         1 b12       0.396597
     98 N17         97.1770    13.4610   193.2460 n2         1 b12      -0.597128
     99 C66         97.0860    12.0850   193.5230 c2         1 b12      -0.116689
    100 C67         97.3040    11.3260   194.7140 c          1 b12       0.926203
    101 N18         97.6380    11.8950   195.9090 n          1 b12      -1.090930
    102 C68         96.3400    12.1140   189.8710 c3         1 b12       0.140259
    103 C69         97.0480    10.8260   189.3970 c3         1 b12       0.008619
    104 C70         94.1420     9.8930   189.8830 c3         1 b12       0.355140
    105 C71         93.8920    11.4110   190.0580 c3         1 b12      -0.015968
    106 C72         92.7060    11.7890   189.1890 c3         1 b12      -0.159616
    107 O15         94.9720    12.2250   189.5110 os         1 b12      -0.332582
    108 O16         96.8640    10.8180   187.9710 oh         1 b12      -0.713592
    109 O17         94.1480     9.5320   188.5040 oh         1 b12      -0.705998
    110 H1          89.1190    10.2790   192.3750 hc         1 b12       0.085596
    111 H2          90.6900    12.0160   193.5880 ha         1 b12       0.279998
    112 H3          94.3800    13.0150   194.9710 hc         1 b12       0.149455
    113 H4          93.2380    11.7790   194.4450 hc         1 b12       0.123970
    114 H5          94.4250    12.4280   193.3070 hc         1 b12       0.206216
    115 H6          92.3340    14.7300   195.6620 hc         1 b12       0.132940
    116 H7          91.5180    13.1860   195.4290 hc         1 b12       0.132972
    117 H8          90.9160    14.6190   194.5980 hc         1 b12       0.183051
    118 H9          96.1060    14.2810   188.4880 hc         1 b12       0.233343
    119 H10         96.8890    15.8560   188.6140 hc         1 b12       0.192384
    120 H11         96.4980    15.2030   187.0250 hc         1 b12       0.121636
    121 H12         93.3880    13.5400   186.9950 h1         1 b12       0.429453
    122 H13         94.4900    22.0880   190.1250 h1         1 b12       0.109840
    123 H14         93.7690    22.8560   188.6680 h1         1 b12       0.142499
    124 H15         92.1020    21.6640   191.0330 h1         1 b12       0.001323
    125 H16         91.5110    24.0580   191.4660 hc         1 b12       0.139304
    126 H17         93.2720    23.9260   191.5350 hc         1 b12       0.142766
    127 H18         92.4890    24.6080   190.0970 hc         1 b12       0.197885
    128 H19         88.9930    23.3600   187.6670 h1         1 b12       0.107664
    129 H20         86.8440    24.5070   187.6530 h1         1 b12       0.041005
    130 H21         86.9830    23.0900   189.8740 ho         1 b12       0.480661
    131 H22         87.0280    26.8390   188.4610 h2         1 b12       0.092545
    132 H23         90.2490    25.1890   189.7740 h1         1 b12       0.137860
    133 H24         91.3870    24.1920   187.5850 h1         1 b12       0.045931
    134 H25         90.5660    25.5830   186.7290 h1         1 b12       0.053218
    135 H26         91.8290    26.9570   188.0180 ho         1 b12       0.462875
    136 H27         88.3540    24.3410   191.1590 h5         1 b12       0.173020
    137 H28         87.8270    25.3260   193.5420 hn         1 b12       0.420093
    138 H29         86.7330    27.8050   194.5780 ha         1 b12       0.235494
    139 H30         85.8310    29.9370   195.1070 hc         1 b12       0.127580
    140 H31         84.6850    30.5440   193.9110 hc         1 b12       0.132041
    141 H32         86.3200    31.2180   193.9970 hc         1 b12       0.129043
    142 H33         85.6740    31.0450   190.1310 hc         1 b12       0.111212
    143 H34         84.6110    31.0760   191.5390 hc         1 b12       0.115628
    144 H35         86.2490    31.7410   191.6460 hc         1 b12       0.117430
    145 H36         86.5660    28.9040   189.6490 ha         1 b12       0.232096
    146 H37         93.7770    11.6900   191.1290 h1         1 b12       0.010890
    147 H38         93.0080    11.9060   188.1370 hc         1 b12       0.025463
    148 H39         91.8860    11.0560   189.2670 hc         1 b12       0.067950
    149 H40         94.9500     9.9210   188.0580 ho         1 b12       0.445084
    150 H41         97.6900    10.5340   187.5250 ho         1 b12       0.471587
    151 H42         95.0890     9.5650   190.3640 h1         1 b12      -0.023096
    152 H43         93.3100     9.2990   190.3060 h1         1 b12       0.043844
    153 H44         98.1180    10.8300   189.6660 h1         1 b12       0.122929
    154 H45         96.5810     9.8960   189.7980 h1         1 b12       0.164166
    155 H46         96.7160    13.0110   189.2810 h2         1 b12       0.106094
    156 H47         89.6840    18.6160   192.9420 hn         1 b12       0.463300
    157 H48         90.1730    19.2740   191.4410 hn         1 b12       0.594019
    158 H49         94.6090    14.9490   193.4390 hc         1 b12       0.016126
    159 H50         93.2600    16.5250   194.6780 hc         1 b12       0.119743
    160 H51         93.7070    17.1840   193.0920 hc         1 b12       0.114732
    161 H52         91.1670    17.2490   194.2500 hc         1 b12       0.038191
    162 H53         90.9560    15.8900   193.1620 hc         1 b12       0.001391
    163 H54         86.9720    14.9440   195.4410 hn         1 b12       0.481798
    164 H55         85.9670    13.8600   194.5830 hn         1 b12       0.468844
    165 H56         88.1410    13.7570   191.6020 hc         1 b12       0.076197
    166 H57         86.4770    13.5250   192.1130 hc         1 b12       0.125414
    167 H58         86.8610    11.3560   192.8020 hc         1 b12       0.101939
    168 H59         88.2210    11.8400   193.8110 hc         1 b12       0.103585
    169 H60         86.2290    10.4780   190.9910 hc         1 b12       0.108126
    170 H61         86.5190    12.0970   190.3290 hc         1 b12       0.126436
    171 H62         86.4300    10.7140   189.2500 hc         1 b12       0.099224
    172 H63         86.4020     8.0970   189.5550 hn         1 b12       0.454214
    173 H64         86.7550     7.6520   187.9420 hn         1 b12       0.468911
    174 H65         89.8070     9.2580   190.2370 hc         1 b12       0.189710
    175 H66         88.3010     8.7380   191.0070 hc         1 b12       0.177604
    176 H67         88.4120    10.5060   186.6760 hc         1 b12       0.157856
    177 H68         87.1430    10.7820   187.8730 hc         1 b12       0.161367
    178 H69         87.4010    11.9750   186.6210 hc         1 b12       0.125614
    179 H70         87.2700    16.1660   182.8990 hn         1 b12       0.433807
    180 H71         85.6520    16.5260   183.3230 hn         1 b12       0.464434
    181 H72         88.3920    14.1770   183.6150 hc         1 b12       0.197874
    182 H73         87.3560    12.9270   184.2760 hc         1 b12       0.155476
    183 H74         87.5360    13.9020   186.5810 hc         1 b12       0.132035
    184 H75         88.4690    15.2780   185.9800 hc         1 b12       0.172788
    185 H76         91.6430    15.9490   184.5670 hc         1 b12       0.149855
    186 H77         90.4000    15.0610   183.6720 hc         1 b12       0.148729
    187 H78         89.9480    16.0630   185.0400 hc         1 b12       0.133228
    188 H79         92.8520    13.6850   184.7370 hc         1 b12       0.183988
    189 H80         92.0840    12.3020   185.5730 hc         1 b12       0.185552
    190 H81         93.1990    11.6280   183.1730 hn         1 b12       0.467046
    191 H82         92.0050    11.4800   181.9580 hn         1 b12       0.488268
    192 H83         91.3330    16.7670   187.0510 hc         1 b12       0.159674
    193 H84         89.7570    15.9970   187.2730 hc         1 b12       0.127437
    194 H85         90.9180    16.0170   188.6130 hc         1 b12       0.182900
    195 H86         96.2790    15.9960   190.8190 hc         1 b12       0.195283
    196 H87         95.1900    17.4160   190.6770 hc         1 b12       0.149058
    197 H88         95.3360    16.5950   192.2060 hc         1 b12       0.177860
    198 H89         93.1150    17.8310   189.3870 hc         1 b12       0.187798
    199 H90         93.0950    18.4630   187.7230 hc         1 b12       0.112812
    200 H91         95.7450    17.7000   189.0780 hc         1 b12       0.132573
    201 H92         95.4580    17.8990   187.3460 hc         1 b12       0.063251
    202 H93         96.5460    17.0650   184.7090 hn         1 b12       0.454587
    203 H94         95.6450    18.2120   183.8140 hn         1 b12       0.486252
    204 H95         95.5570    15.1240   185.6830 hc         1 b12       0.194581
    205 H96         94.0000    14.6890   184.9600 hc         1 b12       0.142232
    206 H97         92.5950    20.6820   188.2330 hn         1 b12       0.352687
    207 H98         96.8740    14.5440   191.4140 h5         1 b12       0.025227
    208 H99         96.6680     8.2750   193.4840 h5         1 b12       0.117528
    209 H100        97.8480    12.8820   195.9630 hn         1 b12       0.472325
    210 H101        97.8410    11.3170   196.7140 hn         1 b12       0.482513
    211 H102        89.4780    12.4690   185.3050 hc         1 b12       0.027020
@<TRIPOS>BOND
     1     2     6 1   
     2     2    20 1   
     3     3    23 1   
     4     3    36 1   
     5     4    38 1   
     6     4    48 1   
     7     5    51 1   
     8     5    64 1   
     9     6     7 1   
    10     6     8 1   
    11     6    64 1   
    12     7   192 1   
    13     7   193 1   
    14     7   194 1   
    15     8     9 1   
    16     8    10 1   
    17     8    14 1   
    18     9   185 1   
    19     9   186 1   
    20     9   187 1   
    21    10    11 1   
    22    10   188 1   
    23    10   189 1   
    24    11    12 1   
    25    11    13 1   
    26    13   190 1   
    27    13   191 1   
    28    14    15 1   
    29    14    20 1   
    30    14   211 1   
    31    15    16 1   
    32    15   183 1   
    33    15   184 1   
    34    16    17 1   
    35    16   181 1   
    36    16   182 1   
    37    17    18 1   
    38    17    19 1   
    39    19   179 1   
    40    19   180 1   
    41    20    21 1   
    42    21    22 1   
    43    21    23 1   
    44    22   176 1   
    45    22   177 1   
    46    22   178 1   
    47    23    24 1   
    48    24    25 1   
    49    24    26 1   
    50    24    30 1   
    51    25   169 1   
    52    25   170 1   
    53    25   171 1   
    54    26    27 1   
    55    26   174 1   
    56    26   175 1   
    57    27    28 1   
    58    27    29 1   
    59    29   172 1   
    60    29   173 1   
    61    30    31 1   
    62    30    36 1   
    63    30   110 1   
    64    31    32 1   
    65    31   167 1   
    66    31   168 1   
    67    32    33 1   
    68    32   165 1   
    69    32   166 1   
    70    33    34 1   
    71    33    35 1   
    72    35   163 1   
    73    35   164 1   
    74    36    37 1   
    75    37    38 1   
    76    37   111 1   
    77    38    39 1   
    78    39    40 1   
    79    39    41 1   
    80    39    42 1   
    81    40   112 1   
    82    40   113 1   
    83    40   114 1   
    84    41   115 1   
    85    41   116 1   
    86    41   117 1   
    87    42    43 1   
    88    42    48 1   
    89    42   158 1   
    90    43    44 1   
    91    43   159 1   
    92    43   160 1   
    93    44    45 1   
    94    44   161 1   
    95    44   162 1   
    96    45    46 1   
    97    45    47 1   
    98    47   156 1   
    99    47   157 1   
   100    48    49 1   
   101    49    50 1   
   102    49    51 1   
   103    50   195 1   
   104    50   196 1   
   105    50   197 1   
   106    51    52 1   
   107    52    53 1   
   108    52    54 1   
   109    52    59 1   
   110    53   118 1   
   111    53   119 1   
   112    53   120 1   
   113    54    55 1   
   114    54   200 1   
   115    54   201 1   
   116    55    56 1   
   117    55   198 1   
   118    55   199 1   
   119    56    57 1   
   120    56    58 1   
   121    58    65 1   
   122    58   206 1   
   123    59    60 1   
   124    59    64 1   
   125    60    61 1   
   126    60   204 1   
   127    60   205 1   
   128    61    62 1   
   129    61    63 1   
   130    63   202 1   
   131    63   203 1   
   132    64   121 1   
   133    65    66 1   
   134    65   122 1   
   135    65   123 1   
   136    66    67 1   
   137    66    68 1   
   138    66   124 1   
   139    67   125 1   
   140    67   126 1   
   141    67   127 1   
   142    68    71 1   
   143    69    71 1   
   144    70    71 1   
   145    71    72 1   
   146    72    73 1   
   147    73    74 1   
   148    73    78 1   
   149    73   128 1   
   150    74    75 1   
   151    74    76 1   
   152    74   129 1   
   153    75   130 1   
   154    76    77 1   
   155    76    81 1   
   156    76   131 1   
   157    77    78 1   
   158    78    79 1   
   159    78   132 1   
   160    79    80 1   
   161    79   133 1   
   162    79   134 1   
   163    80   135 1   
   164    81    82 1   
   165    81    83 1   
   166    82    85 1   
   167    82    91 1   
   168    83    84 1   
   169    83   136 1   
   170    84    85 1   
   171    84   137 1   
   172    85    86 1   
   173    86    87 1   
   174    86   138 1   
   175    87    88 1   
   176    87    89 1   
   177    88   139 1   
   178    88   140 1   
   179    88   141 1   
   180    89    90 1   
   181    89    91 1   
   182    90   142 1   
   183    90   143 1   
   184    90   144 1   
   185    91   145 1   
   186    92    93 1   
   187    92   100 1   
   188    93    94 1   
   189    93   208 1   
   190    94    95 1   
   191    95    96 1   
   192    95    99 1   
   193    96    97 1   
   194    96   102 1   
   195    97    98 1   
   196    97   207 1   
   197    98    99 1   
   198    99   100 1   
   199   100   101 1   
   200   101   209 1   
   201   101   210 1   
   202   102   103 1   
   203   102   107 1   
   204   102   155 1   
   205   103   108 1   
   206   103   153 1   
   207   103   154 1   
   208   104   105 1   
   209   104   109 1   
   210   104   151 1   
   211   104   152 1   
   212   105   106 1   
   213   105   107 1   
   214   105   146 1   
   215   106   147 1   
   216   106   148 1   
   217   108   150 1   
   218   109   149 1   
@<TRIPOS>SUBSTRUCTURE
     1 b12         1 TEMP              0 ****  ****    0 ROOT
